********************************************************************************
* Library          : DOAN
* Cell             : NOT
* View             : schematic
* View Search List : auCdl schematic symbol
* View Stop List   : auCdl
********************************************************************************
.subckt NOT in out
*.PININFO in:I out:O
MM0 out in gnd! gnd! N w=0.48u l=0.2u nf=1 m=1
MM1 out in vdd! vdd! P w=1.92u l=0.2u nf=1 m=1
.ends NOT

