********************************************************************************
* Library          : DOAN
* Cell             : Pulse_FF
* View             : schematic
* View Search List : auCdl schematic symbol
* View Stop List   : auCdl
********************************************************************************
.subckt Pulse_FF D Q Q_N clk_in
*.PININFO D:I Q:O Q_N:O clk_in:I
XI0 clk_in net6 pulse
XI1 net6 D Q Q_N DA
.ends Pulse_FF

